Circuit: * C:\Users\theze\OneDrive\Documents\GitHub\eeg-project\nathand-circuit-new.asc

Early termination of direct N-R iteration.
Direct Newton iteration failed to find .op point.  (Use ".option noopiter" to skip.)
Starting Gmin stepping
Gmin = 10
vernier = 0.5
vernier = 0.25
vernier = 0.125
vernier = 0.0625
Gmin = 7.75758
vernier = 0.03125
vernier = 0.015625
vernier = 0.0078125
Gmin = 7.53481
vernier = 0.00390625
vernier = 0.00195313
vernier = 0.000976563
vernier = 0.000488281
Gmin = 7.544
Gmin = 0
Gmin stepping succeeded in finding the operating point.


Date: Wed Apr 20 17:41:54 2022
Total elapsed time: 0.989 seconds.

tnom = 27
temp = 27
method = modified trap
totiter = 18154
traniter = 16652
tranpoints = 3902
accept = 3032
rejected = 870
matrix size = 290
fillins = 879
solver = Normal
Thread vector: 19.1/10.4[6] 8.8/3.7[6] 7.2/2.8[6] 1.9/2.7[1]  2592/500
Matrix Compiler1: 76.94 KB object code size  19.0/10.8/[4.5]
Matrix Compiler2: 39.67 KB object code size  7.7/7.9/[2.4]

