Circuit: * C:\Users\theze\OneDrive\Documents\GitHub\eeg-project\nathand-circuit-test.asc

Direct Newton iteration for .op point succeeded.

Date: Tue Apr 19 18:00:48 2022
Total elapsed time: 0.018 seconds.

tnom = 27
temp = 27
method = trap
totiter = 42
traniter = 0
tranpoints = 0
accept = 0
rejected = 0
matrix size = 39
fillins = 54
solver = Normal
Matrix Compiler1:     241 opcodes
Matrix Compiler2:     314 opcodes
