Circuit: * C:\Users\theze\OneDrive\Documents\GitHub\eeg-project\nathand-circuit.asc

Early termination of direct N-R iteration.
Direct Newton iteration failed to find .op point.  (Use ".option noopiter" to skip.)
Starting Gmin stepping
Gmin = 10
vernier = 0.5
vernier = 0.25
vernier = 0.125
vernier = 0.0625
Gmin = 7.75758
vernier = 0.03125
vernier = 0.015625
vernier = 0.0078125
Gmin = 7.53481
vernier = 0.00390625
vernier = 0.00195313
vernier = 0.000976563
vernier = 0.000488281
Gmin = 7.544
Gmin = 0
Gmin stepping succeeded in finding the operating point.


Date: Sun Apr 17 00:57:38 2022
Total elapsed time: 1.028 seconds.

tnom = 27
temp = 27
method = modified trap
totiter = 29310
traniter = 27759
tranpoints = 6039
accept = 4604
rejected = 1435
matrix size = 254
fillins = 971
solver = Normal
Thread vector: 11.6/5.9[5] 4.6/3.1[5] 4.4/2.3[5] 0.9/1.3[1]  2592/500
Matrix Compiler1: 91.13 KB object code size  15.1/7.8/[3.4]
Matrix Compiler2: 38.11 KB object code size  3.4/4.1/[1.9]

